*HEADING
cubit(curvedfilm1.inp): 10/26/2015: 12:21:00
version: 13.2
**
********************************** P A R T S **********************************
*PART, NAME=Part-Default
**
********************************** N O D E S **********************************
*NODE, NSET=ALLNODES
       1,    1.950000e+01,    0.000000e+00
       2,    2.050000e+01,    0.000000e+00
       3,    2.047606e+01,    9.904243e-01
       4,    1.947723e+01,    9.421109e-01
       5,    2.150000e+01,    0.000000e+00
       6,    2.147489e+01,    1.038738e+00
       7,    2.250000e+01,    0.000000e+00
       8,    2.247373e+01,    1.087051e+00
       9,    2.350000e+01,    0.000000e+00
      10,    2.347256e+01,    1.135364e+00
      11,    2.040430e+01,    1.978535e+00
      12,    1.940897e+01,    1.882021e+00
      13,    2.139963e+01,    2.075049e+00
      14,    2.239496e+01,    2.171563e+00
      15,    2.339029e+01,    2.268077e+00
      16,    2.028488e+01,    2.962026e+00
      17,    1.929537e+01,    2.817536e+00
      18,    2.127439e+01,    3.106515e+00
      19,    2.226389e+01,    3.251004e+00
      20,    2.325340e+01,    3.395493e+00
** ... 310 like lines cut
**
********************************** E L E M E N T S ****************************
*ELEMENT, TYPE=S4R, ELSET=EB3
       1,       1,       2,       3,       4
       2,       2,       5,       6,       3
       3,       5,       7,       8,       6
       4,       7,       9,      10,       8
       5,       4,       3,      11,      12
       6,       3,       6,      13,      11
       7,       6,       8,      14,      13
       8,       8,      10,      15,      14
       9,      12,      11,      16,      17
      10,      11,      13,      18,      16
      11,      13,      14,      19,      18
      12,      14,      15,      20,      19
      13,      17,      16,      21,      22
      14,      16,      18,      23,      21
      15,      18,      19,      24,      23
      16,      19,      20,      25,      24
      17,      22,      21,      26,      27
      18,      21,      23,      28,      26
      19,      23,      24,      29,      28
      20,      24,      25,      30,      29
** ... 240 like lines cut
**
********************************** N O D E S E T S **********************************
*NSET, NSET=NS1
       9,       7,       5,       2,       1,
*NSET, NSET=NS2
       9,      10,      15,      20,      25,      30,
      35,      40,      45,      50,      55,      60,
      65,      70,      75,      80,      85,      90,
      95,     100,     105,     110,     115,     120,
     125,     130,     135,     140,     145,     150,
     155,     160,     165,     170,     175,     180,
     185,     190,     195,     200,     205,     210,
     215,     220,     225,     230,     235,     240,
     245,     250,     255,     260,     265,     270,
     275,     280,     285,     290,     295,     300,
     305,     310,     315,     320,     325,     330,
*NSET, NSET=NS3
     327,     326,     328,     329,     330,
*NSET, NSET=NS4
     327,     322,     317,     312,     307,     302,
     297,     292,     287,     282,     277,     272,
     267,     262,     257,     252,     247,     242,
     237,     232,     227,     222,     217,     212,
     207,     202,     197,     192,     187,     182,
     177,     172,     167,     162,     157,     152,
     147,     142,     137,     132,     127,     122,
     117,     112,     107,     102,      97,      92,
      87,      82,      77,      72,      67,      62,
      57,      52,      47,      42,      37,      32,
      27,      22,      17,      12,       4,       1,
**
********************************** P R O P E R T I E S ************************
*SHELL SECTION, ELSET=EB3, SECTION INTEGRATION=SIMPSON, MATERIAL=Default-Steel
1.000000e+00
**
*END PART
**
**
**
********************************** E N D   P A R T S **********************************
**
**
********************************** A S S E M B L Y ************************************
**
*ASSEMBLY, NAME=ASSEMBLY1
**
*INSTANCE, NAME=Part-Default_1, PART=Part-Default
*END INSTANCE
**
*END ASSEMBLY
**
**
**
*MATERIAL, NAME = Default-Steel
*ELASTIC, TYPE=ISOTROPIC
2.068000e+05, 2.900000e-01
*DENSITY
7.000000e-06
*CONDUCTIVITY,TYPE=ISO
4.500000e-02
*SPECIFIC HEAT
5.000000e+02
**
**
************************************** H I S T O R Y *************************************
**
*PREPRINT
**
**************************************** S T E P 1 ***************************************
*STEP,INC=100,NAME=Default Set
**
*STATIC
1, 1, 1e-05, 1
**
**
**
**
*END STEP
